# Packages
 &PACKAGES
 useCAL         = .TRUE.,
 useKPP         = .TRUE.,
 useEXF         = .TRUE.,
 useDiagnostics = .TRUE.,
 useObcs=.TRUE.,
 useMNC = .TRUE.,
 &
