# Packages
 &PACKAGES
  useMNC         = .TRUE.,
  useCAL         = .TRUE.,
  useDiagnostics = .TRUE.,
 &
